!!>>>>>>>>>>>>>>>>>>>>>>>>>>>>>>>>>>>>>>>>>>>>>>>>>>>>>>>>>>>>>>>>>>>>>>
!! NEMO/OPA  :  1 - run manager      (namrun)
!! namelists    2 - Domain           (namzgr, namzgr_sco, namdom, namdta_tem, namdta_sal)
!!              3 - Surface boundary (namsbc, namsbc_ana, namsbc_flx, namsbc_clio, namsbc_core
!!                                    namsbc_cpl, namsbc_cpl_co2 namtra_qsr, namsbc_rnf, 
!!                                    namsbc_apr, namsbc_ssr, namsbc_alb)
!!              4 - lateral boundary (namlbc, namcla, namobc, namagrif, nambdy, nambdy_tide)
!!              5 - bottom  boundary (nambfr, nambbc, nambbl)
!!              6 - Tracer           (nameos, namtra_adv, namtra_ldf, namtra_dmp)
!!              7 - dynamics         (namdyn_adv, namdyn_vor, namdyn_hpg, namdyn_spg, namdyn_ldf)
!!              8 - Verical physics  (namzdf, namzdf_ric, namzdf_tke, namzdf_kpp, namzdf_ddm, namzdf_tmx)
!!              9 - diagnostics      (namnc4, namtrd, namspr, namflo, namptr, namhsb)
!!             10 - miscellaneous    (namsol, nammpp, nammpp_dyndist, namctl)
!!             11 - Obs & Assim      (namobs, nam_asminc)
!!>>>>>>>>>>>>>>>>>>>>>>>>>>>>>>>>>>>>>>>>>>>>>>>>>>>>>>>>>>>>>>>>>>>>>>

!!======================================================================
!!                   ***  Run management namelists  ***
!!======================================================================
!!   namrun        parameters of the run
!!======================================================================
!
!-----------------------------------------------------------------------
&namrun        !   parameters of the run
!-----------------------------------------------------------------------
   nn_no       =       0   !  job number
   cn_exp      =   "SQB" !  experience name 
   nn_it000    =          0 !  first time step
   nn_itend    =     34560 !  last  time step
   nn_date0    =  20090101 !  initial calendar date yymmdd (used if nn_rstctl=1)
   nn_leapy    =      30   !  Leap year calendar (1) or not (0)
   ln_rstart   = .true.  !  start from rest (F) or from a restart file (T)
   nn_rstctl   = 0      !  restart control = 0 nn_it000 is not compared to the restart file value
                               !                  = 1 use nn_date0 in namelist (not the value in the restart file)
                               !                  = 2 calendar parameters read in the restart file
   cn_ocerst_in  = "restart"   !  suffix of ocean restart name (input)
   cn_ocerst_out = "restart"   !  suffix of ocean restart name (output)
   nn_istate   =       0   !  output the initial state (1) or not (0)
   nn_stock    =      192   !  frequency of creation of a restart file (modulo referenced to 1)
   nn_write    =      192 !  frequency of write in the output file   (modulo referenced to nn_it000)
   ln_dimgnnn  = .false.   !  DIMG file format: 1 file for all processors (F) or by processor (T)
   ln_mskland  = .false.   !  mask land points in NetCDF outputs (costly: + ~15%)
   ln_clobber  = .true.    !  clobber (overwrite) an existing file
   nn_chunksz  =       0   !  chunksize (bytes) for NetCDF file (works only with iom_nf90 routines)
/

!!======================================================================
!!                      ***  Domain namelists  ***
!!======================================================================
!!   namzgr       vertical coordinate
!!   namzgr_sco   s-coordinate or hybrid z-s-coordinate
!!   namdom       space and time domain (bathymetry, mesh, timestep)
!!   namdta_tem   data: temperature                                     ("key_dtatem")
!!   namdta_sal   data: salinity                                        ("key_dtasal")
!!======================================================================
!
!-----------------------------------------------------------------------
&namzgr        !   vertical coordinate
!-----------------------------------------------------------------------
   ln_zco      = .true.    !  z-coordinate - full    steps   (T/F)      ("key_zco" may also be defined)
   ln_zps      = .false.   !  z-coordinate - partial steps   (T/F)
   ln_sco      = .false.   !  s- or hybrid z-s-coordinate    (T/F)
/
!-----------------------------------------------------------------------
&namzgr_sco    !   s-coordinate or hybrid z-s-coordinate
!-----------------------------------------------------------------------
   rn_sbot_min =  300.     !  minimum depth of s-bottom surface (>0) (m)
   rn_sbot_max = 5250.     !  maximum depth of s-bottom surface (= ocean depth) (>0) (m)
   rn_theta    =    6.0    !  surface control parameter (0<=rn_theta<=20)
   rn_thetb    =    0.75   !  bottom control parameter  (0<=rn_thetb<= 1)
   rn_rmax     =    0.15   !  maximum cut-off r-value allowed (0<rn_max<1)
   ln_s_sigma  = .false.   !  hybrid s-sigma coordinates
   rn_bb       =    0.8    !  stretching with s-sigma
   rn_hc       =  150.0    !  critical depth with s-sigma 
/
!-----------------------------------------------------------------------
&namdom        !   space and time domain (bathymetry, mesh, timestep)
!-----------------------------------------------------------------------
   nn_bathy    =    0      !  compute (=0) or read (=1) the bathymetry file
   nn_closea    =   0      !  remove (=0) or keep (=1) closed seas and lakes (ORCA)
   nn_msh      =    0      !  create (=1) a mesh file or not (=0)
   rn_hmin     =   -3.     !  min depth of the ocean (>0) or min number of ocean level (<0)
   rn_e3zps_min=   20.     !  partial step thickness is set larger than the minimum of
   rn_e3zps_rat=    0.1    !  rn_e3zps_min and rn_e3zps_rat*e3t, with 0<rn_e3zps_rat<1
                           !
   rn_rdt      =  900.     !  time step for the dynamics (and tracer if nn_acc=0)
   nn_baro     =   60      !  number of barotropic time step            ("key_dynspg_ts")
   rn_atfp     =    0.1    !  asselin time filter parameter
   nn_acc      =    0      !  acceleration of convergence : =1      used, rdt < rdttra(k)
                                 !                          =0, not used, rdt = rdttra
   rn_rdtmin   =  900.           !  minimum time step on tracers (used if nn_acc=1)
   rn_rdtmax   =  900.           !  maximum time step on tracers (used if nn_acc=1)
   rn_rdth     =  800.           !  depth variation of tracer time step (used if nn_acc=1)
/
!-----------------------------------------------------------------------
&namdta_tem    !   data : temperature                                   ("key_dtatem")
!-----------------------------------------------------------------------
!              ! file name ! frequency (hours)    ! variable ! time interp. ! clim  !'yearly' or ! weights  ! rotation !
!              !           !  (if <0  months)     !   name   !  (logical)   ! (T/F) ! 'monthly'  ! filename ! pairing  !
   sn_tem = 'data_1m_potential_temperature_nomask', -1,'votemper',  .true.  , .true., 'yearly'   , ' '      , ' '
   !
   cn_dir       = './'     !  root directory for the location of the runoff files
/
!-----------------------------------------------------------------------
&namdta_sal    !   data : salinity                                      ("key_dtasal")
!-----------------------------------------------------------------------
!              ! file name ! frequency (hours)    ! variable ! time interp. ! clim  !'yearly' or ! weights  ! rotation !
!              !           !  (if <0  months)     !   name   !   (logical)  ! (T/F) ! 'monthly'  ! filename ! pairing  !
   sn_sal      =  'data_1m_salinity_nomask',  -1  ,'vosaline',    .true.    , .true., 'yearly'   , ''       , ' '
   !
   cn_dir      = './'      !  root directory for the location of the runoff files
/

!!======================================================================
!!            ***  Surface Boundary Condition namelists  ***
!!======================================================================
!!   namsbc          surface boundary condition
!!   namsbc_ana      analytical         formulation
!!   namsbc_flx      flux               formulation
!!   namsbc_clio     CLIO bulk formulea formulation
!!   namsbc_core     CORE bulk formulea formulation
!!   namsbc_cpl      CouPLed            formulation                     ("key_coupled")
!!   namsbc_cpl_co2  coupled ocean/biogeo/atmosphere model              ("key_cpl_carbon_cycle")
!!   namtra_qsr      penetrative solar radiation
!!   namsbc_rnf      river runoffs
!!   namsbc_apr      Atmospheric Pressure
!!   namsbc_ssr      sea surface restoring term (for T and/or S)
!!   namsbc_alb      albedo parameters
!!======================================================================
!
!-----------------------------------------------------------------------
&namsbc        !   Surface Boundary Condition (surface module)
!-----------------------------------------------------------------------
   nn_fsbc     = 1         !  frequency of surface boundary condition computation 
                           !     (also = the frequency of sea-ice model call)
   ln_ana      = .true.    !  analytical formulation                    (T => fill namsbc_ana ) 
   ln_flx      = .false.   !  flux formulation                          (T => fill namsbc_flx )
   ln_blk_clio = .false.   !  CLIO bulk formulation                     (T => fill namsbc_clio) 
   ln_blk_core = .false.   !  CORE bulk formulation                     (T => fill namsbc_core) 
   ln_cpl      = .false.   !  Coupled formulation                       (T => fill namsbc_cpl )
   ln_apr_dyn  = .false.   !  Patm gradient added in ocean & ice Eqs.   (T => fill namsbc_apr )
   nn_ice      = 0         !  =0 no ice boundary condition   ,
                           !  =1 use observed ice-cover      ,
                           !  =2 ice-model used                         ("key_lim3" or "key_lim2)
   ln_dm2dc    = .false.   !  daily mean to diurnal cycle on short wave
   ln_rnf      = .false.   !  runoffs                                   (T => fill namsbc_rnf)
   ln_ssr      = .false.   !  Sea Surface Restoring on T and/or S       (T => fill namsbc_ssr)
   nn_fwb      = 0         !  FreshWater Budget: =0 unchecked 
                           !     =1 global mean of e-p-r set to zero at each time step 
                           !     =2 annual global mean of e-p-r set to zero
                           !     =3 global emp set to zero and spread out over erp area
/
!-----------------------------------------------------------------------
&namsbc_ana    !   analytical surface boundary condition
!-----------------------------------------------------------------------
   nn_tau000   =   100     !  gently increase the stress over the first ntau_rst time-steps
   rn_utau0    =   0.1e0   !  uniform value for the i-stress
   rn_vtau0    =   0.e0    !  uniform value for the j-stress
   rn_qns0     =   0.e0    !  uniform value for the total heat flux
   rn_qsr0     =   0.e0    !  uniform value for the solar radiation
   rn_emp0     =   0.e0    !  uniform value for the freswater budget (E-P)
/
!-----------------------------------------------------------------------
&namsbc_flx    !   surface boundary condition : flux formulation
!-----------------------------------------------------------------------
!              !  file name  ! frequency (hours) ! variable  ! time interp. !  clim  ! 'yearly'/ ! weights  ! rotation !
!              !             !  (if <0  months)  !   name    !   (logical)  !  (T/F) ! 'monthly' ! filename ! pairing  !
   sn_utau     = 'utau'      ,        24         , 'utau'    , .false.      , .false., 'yearly'  , ''       , ''
   sn_vtau     = 'vtau'      ,        24         , 'vtau'    , .false.      , .false., 'yearly'  , ''       , ''
   sn_qtot     = 'qtot'      ,        24         , 'qtot'    , .false.      , .false., 'yearly'  , ''       , ''
   sn_qsr      = 'qsr'       ,        24         , 'qsr'     , .false.      , .false., 'yearly'  , ''       , ''
   sn_emp      = 'emp'       ,        24         , 'emp'     , .false.      , .false., 'yearly'  , ''       , ''

   cn_dir      = './'      !  root directory for the location of the flux files
/      
!-----------------------------------------------------------------------
&namsbc_clio   !   namsbc_clio  CLIO bulk formulea
!-----------------------------------------------------------------------
!              !  file name  ! frequency (hours) ! variable  ! time interp. !  clim  ! 'yearly'/ ! weights  ! rotation !
!              !             !  (if <0  months)  !   name    !   (logical)  !  (T/F) ! 'monthly' ! filename ! pairing  !
   sn_utau     = 'taux_1m'   ,       -1          , 'sozotaux',   .true.     , .true. , 'yearly'  , ''       , ''
   sn_vtau     = 'tauy_1m'   ,       -1          , 'sometauy',   .true.     , .true. , 'yearly'  , ''       , ''
   sn_wndm     = 'flx'       ,       -1          , 'socliowi',   .true.     , .true. , 'yearly'  , ''       , ''
   sn_tair     = 'flx'       ,       -1          , 'socliot2',   .true.     , .true. , 'yearly'  , ''       , ''
   sn_humi     = 'flx'       ,       -1          , 'socliohu',   .true.     , .true. , 'yearly'  , ''       , ''
   sn_ccov     = 'flx'       ,       -1          , 'socliocl',   .false.    , .true. , 'yearly'  , ''       , ''
   sn_prec     = 'flx'       ,       -1          , 'socliopl',   .false.    , .true. , 'yearly'  , ''       , ''

   cn_dir      = './'      !  root directory for the location of the bulk files are
/
!-----------------------------------------------------------------------
&namsbc_core   !   namsbc_core  CORE bulk formulea
!-----------------------------------------------------------------------
!              !  file name  ! frequency (hours) ! variable  ! time interp. !  clim  ! 'yearly'/ ! weights  ! rotation !
!              !             !  (if <0  months)  !   name    !   (logical)  !  (T/F) ! 'monthly' ! filename ! pairing  !
   sn_wndi = 'u_10.15JUNE2009_orca2'       ,  6  , 'U_10_MOD',   .false.    , .true. , 'yearly'  , ''       , 'Uwnd'
   sn_wndj = 'v_10.15JUNE2009_orca2'       ,  6  , 'V_10_MOD',   .false.    , .true. , 'yearly'  , ''       , 'Vwnd'
   sn_qsr  = 'ncar_rad.15JUNE2009_orca2'   , 24  , 'SWDN_MOD',   .false.    , .true. , 'yearly'  , ''       , ''
   sn_qlw  = 'ncar_rad.15JUNE2009_orca2'   , 24  , 'LWDN_MOD',   .false.    , .true. , 'yearly'  , ''       , ''
   sn_tair = 't_10.15JUNE2009_orca2'       ,  6  , 'T_10_MOD',   .false.    , .true. , 'yearly'  , ''       , ''
   sn_humi = 'q_10.15JUNE2009_orca2'       ,  6  , 'Q_10_MOD',   .false.    , .true. , 'yearly'  , ''       , ''
   sn_prec = 'ncar_precip.15JUNE2009_orca2', -1  , 'PRC_MOD1',   .false.    , .true. , 'yearly'  , ''       , ''
   sn_snow = 'ncar_precip.15JUNE2009_orca2', -1  , 'SNOW'    ,   .false.    , .true. , 'yearly'  , ''       , ''
   sn_tdif = 'taudif_core'                 , 24  , 'taudif'  ,   .false.    , .true. , 'yearly'  , ''       , ''

   cn_dir      = './'      !  root directory for the location of the bulk files
   ln_2m       = .false.   !  air temperature and humidity referenced at 2m (T) instead 10m (F)
   ln_taudif   = .false.   !  HF tau contribution: use "mean of stress module - module of the mean stress" data
   rn_pfac     = 1.        !  multiplicative factor for precipitation (total & snow)
/
!-----------------------------------------------------------------------
&namsbc_cpl    !   coupled ocean/atmosphere model                       ("key_coupled")
!-----------------------------------------------------------------------
!                                      ! send
cn_snd_temperature= 'weighted oce and ice'  !  'oce only' 'weighted oce and ice' 'mixed oce-ice'
cn_snd_albedo     = 'weighted ice'          !  'none' 'weighted ice' 'mixed oce-ice'
cn_snd_thickness  = 'none'                  !  'none' 'weighted ice and snow'
cn_snd_crt_nature = 'none'                  !  'none' 'oce only' 'weighted oce and ice' 'mixed oce-ice'
cn_snd_crt_refere = 'spherical'             !  'spherical' 'cartesian'
cn_snd_crt_orient = 'eastward-northward'    !  'eastward-northward' or 'local grid'
cn_snd_crt_grid   = 'T'                     !  'T'
!                                      ! receive
cn_rcv_w10m       = 'none'                  !  'none' 'coupled'
cn_rcv_taumod     = 'coupled'               !  'none' 'coupled'
cn_rcv_tau_nature = 'oce only'              !  'oce only' 'oce and ice' 'mixed oce-ice'
cn_rcv_tau_refere = 'cartesian'             !  'spherical' 'cartesian'
cn_rcv_tau_orient = 'eastward-northward'    !  'eastward-northward' or 'local grid'
cn_rcv_tau_grid   = 'U,V'                   !  'T' 'U,V' 'U,V,F' 'U,V,I' 'T,F' 'T,I' 'T,U,V'
cn_rcv_dqnsdt     = 'coupled'               !  'none' 'coupled'
cn_rcv_qsr        = 'oce and ice'           !  'conservative' 'oce and ice' 'mixed oce-ice'
cn_rcv_qns        = 'oce and ice'           !  'conservative' 'oce and ice' 'mixed oce-ice'
cn_rcv_emp        = 'conservative'          !  'conservative' 'oce and ice' 'mixed oce-ice'
cn_rcv_rnf        = 'coupled'               !  'coupled' 'climato' 'mixed'
cn_rcv_cal        = 'coupled'               !  'none' 'coupled'
/
!-----------------------------------------------------------------------
&namsbc_cpl_co2   !   coupled ocean/biogeo/atmosphere model             ("key_cpl_carbon_cycle")
!-----------------------------------------------------------------------
   cn_snd_co2     = 'coupled'         ! send    : 'none' 'coupled'
   cn_rcv_co2     = 'coupled'         ! receive : 'none' 'coupled'
/
!-----------------------------------------------------------------------
&namtra_qsr    !   penetrative solar radiation
!-----------------------------------------------------------------------
!              !  file name  ! frequency (hours) ! variable  ! time interp. !  clim  ! 'yearly'/ ! weights  ! rotation !
!              !             !  (if <0  months)  !   name    !   (logical)  !  (T/F) ! 'monthly' ! filename ! pairing  !
   sn_chl      ='chlorophyll',        -1         , 'CHLA'    ,   .true.     , .true. , 'yearly'  , ''       , ''
 
   cn_dir      = './'      !  root directory for the location of the runoff files
   ln_traqsr   = .true.    !  Light penetration (T) or not (F)
   ln_qsr_rgb  = .false.   !  RGB (Red-Green-Blue) light penetration
   ln_qsr_2bd  = .true.    !  2 bands              light penetration
   ln_qsr_bio  = .false.   !  bio-model light penetration
   nn_chldta   =      0    !  RGB : Chl data (=1) or cst value (=0)
   rn_abs      =   0.58    !  RGB & 2 bands: fraction of light (rn_si1)
   rn_si0      =   0.35    !  RGB & 2 bands: shortess depth of extinction
   rn_si1      =   23.0    !  2 bands: longest depth of extinction
/
!-----------------------------------------------------------------------
&namsbc_rnf    !   runoffs namelist surface boundary condition
!-----------------------------------------------------------------------
!              !  file name  ! frequency (hours) ! variable  ! time interp. !  clim  ! 'yearly'/ ! weights  ! rotation !
!              !             !  (if <0  months)  !   name    !   (logical)  !  (T/F) ! 'monthly' ! filename ! pairing  !
   sn_rnf      = 'runoff_core_monthly',    -1    , 'sorunoff',   .true.     , .true. , 'yearly'  , ''       , ''
   sn_cnf      = 'runoff_core_monthly',     0    , 'socoefr0',   .false.    , .true. , 'yearly'  , ''       , ''
   sn_s_rnf    = 'runoffs'            ,    24    , 'rosaline',   .true.     , .true. , 'yearly'  , ''       , ''
   sn_t_rnf    = 'runoffs'            ,    24    , 'rotemper',   .true.     , .true. , 'yearly'  , ''       , ''
   sn_dep_rnf  = 'runoffs'            ,     0    , 'rodepth' ,   .false.    , .true. , 'yearly'  , ''       , ''

   cn_dir       = './'      !  root directory for the location of the runoff files
   ln_rnf_emp   = .false.   !  runoffs included into precipitation field (T) or into a file (F)
   ln_rnf_mouth = .false.   !  specific treatment at rivers mouths
   rn_hrnf      =  15.e0    !  depth over which enhanced vertical mixing is used
   rn_avt_rnf   =   1.e-3   !  value of the additional vertical mixing coef. [m2/s]
   rn_rfact     =   1.e0    !  multiplicative factor for runoff
   ln_rnf_depth = .false.   !  read in depth information for runoff
   ln_rnf_tem   = .false.   !  read in temperature information for runoff
   ln_rnf_sal   = .false.   !  read in salinity information for runoff
/
!-----------------------------------------------------------------------
&namsbc_apr    !   Atmospheric pressure used as ocean forcing or in bulk
!-----------------------------------------------------------------------
!              ! file name ! frequency (hours) ! variable ! time interpol. !  clim   ! 'yearly'/ ! weights  ! rotation !
!              !           !  (if <0  months)  !   name   !    (logical)   !  (T/F)  ! 'monthly' ! filename ! pairing  !
   sn_apr      = 'patm'    ,         -1        ,'somslpre',    .true.      , .true.  , 'yearly'  ,  ''      ,   ''

   cn_dir      = './'      !  root directory for the location of the bulk files
   ln_ref_apr  = .false.   !  ref. pressure: global mean Patm (T) or a constant (F)
/
!-----------------------------------------------------------------------
&namsbc_ssr    !   surface boundary condition : sea surface restoring
!-----------------------------------------------------------------------
!              !  file name  ! frequency (hours) ! variable  ! time interp. !  clim  ! 'yearly'/ ! weights  ! rotation !
!              !             !  (if <0  months)  !   name    !   (logical)  !  (T/F) ! 'monthly' ! filename ! pairing  !
   sn_sst      = 'sst_data'  ,        24         ,  'sst'    ,    .false.   , .false., 'yearly'  , ''       , ''
   sn_sss      = 'sss_data'  ,        -1         ,  'sss'    ,    .true.    , .true. , 'yearly'  , ''       , ''
    
   cn_dir      = './'      !  root directory for the location of the runoff files
   nn_sstr     =     0     !  add a retroaction term in the surface heat       flux (=1) or not (=0)
   nn_sssr     =     0     !  add a damping     term in the surface freshwater flux (=2)
                           !  or to SSS only (=1) or no damping term (=0)
   rn_dqdt     =   -40.    !  magnitude of the retroaction on temperature   [W/m2/K]
   rn_deds     =   -27.7   !  magnitude of the damping on salinity   [mm/day]
   ln_sssr_bnd =   .false. !  flag to bound erp term (associated with nn_sssr=2)
   rn_sssr_bnd =   4.e0    !  ABS(Max/Min) value of the damping erp term [mm/day]
/      
!-----------------------------------------------------------------------
&namsbc_alb    !   albedo parameters
!-----------------------------------------------------------------------
   rn_cloud    =    0.06   !  cloud correction to snow and ice albedo 
   rn_albice   =    0.53   !  albedo of melting ice in the arctic and antarctic
   rn_alphd    =    0.80   !  coefficients for linear interpolation used to
   rn_alphc    =    0.65   !  compute albedo between two extremes values 
   rn_alphdi   =    0.72   !  (Pyane, 1972)
/

!!======================================================================
!!               ***  Lateral boundary condition  ***
!!======================================================================
!!   namlbc        lateral momentum boundary condition
!!   namcla        cross land advection
!!   namobc        open boundaries parameters                           ("key_obc")
!!   namagrif      agrif nested grid ( read by child model only )       ("key_agrif") 
!!   nambdy        Unstructured open boundaries                         ("key_bdy")
!!   namtide       Tidal forcing at open boundaries                     ("key_bdy_tides")
!!======================================================================
!
!-----------------------------------------------------------------------
&namlbc        !   lateral momentum boundary condition
!-----------------------------------------------------------------------
   rn_shlat    =    0.     !  shlat = 0  !  0 < shlat < 2  !  shlat = 2  !  2 < shlat
                           !  free slip  !   partial slip  !   no slip   ! strong slip
/
!-----------------------------------------------------------------------
&namcla        !   cross land advection
!-----------------------------------------------------------------------
   nn_cla      =    0      !  advection between 2 ocean pts separates by land
/
!-----------------------------------------------------------------------
&namobc        !   open boundaries parameters                           ("key_obc")
!-----------------------------------------------------------------------
   ln_obc_clim = .false.   !  climatological obc data files (T) or not (F)
   ln_vol_cst  = .true.    !  impose the total volume conservation (T) or not (F)
   ln_obc_fla  = .false.   !  Flather open boundary condition 
   nn_obcdta   =    1      !  = 0 the obc data are equal to the initial state
                           !  = 1 the obc data are read in 'obc.dta' files
   cn_obcdta   = 'annual'  !  set to annual if obc datafile hold 1 year of data
                           !  set to monthly if obc datafile hold 1 month of data
   rn_dpein    =    1.     !  damping time scale for inflow at east  open boundary
   rn_dpwin    =    1.     !     -           -         -       west    -      -
   rn_dpnin    =    1.     !     -           -         -       north   -      -
   rn_dpsin    =    1.     !     -           -         -       south   -      -
   rn_dpeob    = 3000.     !  time relaxation (days) for the east  open boundary
   rn_dpwob    =   15.     !     -           -         -     west    -      -
   rn_dpnob    = 3000.     !     -           -         -     north   -      -
   rn_dpsob    =   15.     !     -           -         -     south   -      -
   rn_volemp   =    1.     !  = 0 the total volume change with the surface flux (E-P-R)
                           !  = 1 the total volume remains constant
/
!-----------------------------------------------------------------------
&namagrif      !  AGRIF zoom                                            ("key_agrif")
!-----------------------------------------------------------------------
   nn_cln_update =    3    !  baroclinic update frequency
   ln_spc_dyn    = .true.  !  use 0 as special value for dynamics
   rn_sponge_tra = 2880.   !  coefficient for tracer   sponge layer [m2/s]
   rn_sponge_dyn = 2880.   !  coefficient for dynamics sponge layer [m2/s]
/
!-----------------------------------------------------------------------
&nambdy        !  unstructured open boundaries                          ("key_bdy")
!-----------------------------------------------------------------------
   cn_mask     =  ''                     !  name of mask file (ln_mask=T)
   cn_dta_frs_T= 'bdydata_grid_T.nc'     !  name of data file (T-points)
   cn_dta_frs_U= 'bdydata_grid_U.nc'     !  name of data file (U-points)
   cn_dta_frs_V= 'bdydata_grid_V.nc'     !  name of data file (V-points)
   cn_dta_fla_T= 'bdydata_bt_grid_T.nc'  !  name of data file for Flather condition (T-points)
   cn_dta_fla_U= 'bdydata_bt_grid_U.nc'  !  name of data file for Flather condition (U-points)
   cn_dta_fla_V= 'bdydata_bt_grid_V.nc'  !  name of data file for Flather condition (V-points)

   ln_clim     = .false.   !  contain 1 (T) or 12 (F) time dumps and be cyclic
   ln_vol      = .false.   !  total volume correction (see volbdy parameter)
   ln_mask     = .false.   !  boundary mask from filbdy_mask (T), boundaries are on edges of domain (F)
   ln_tides    = .false.   !  Apply tidal harmonic forcing with Flather condition
   ln_dyn_fla  = .false.   !  Apply Flather condition to velocities
   ln_tra_frs  = .false.   !  Apply FRS condition to temperature and salinity 
   ln_dyn_frs  = .false.   !  Apply FRS condition to velocities
   nn_rimwidth =  9        !  width of the relaxation zone
   nn_dtactl   =  1        !  = 0, bdy data are equal to the initial state
                           !  = 1, bdy data are read in 'bdydata   .nc' files
   nn_volctl   =  0        !  = 0, the total water flux across open boundaries is zero
                           !  = 1, the total volume of the system is conserved
/
!-----------------------------------------------------------------------
&nambdy_tide   !  tidal forcing at unstructured boundaries              
!-----------------------------------------------------------------------
   filtide     = 'bdytide_'           !  file name root of tidal forcing files
   tide_cpt    = 'M2','S1'            !  names of tidal components used
   tide_speed  = 28.984106, 15.000001 !  phase speeds of tidal components (deg/hour)
   ln_tide_date= .false.              !  adjust tidal harmonics for start date of run
/

!!======================================================================
!!                 ***  Bottom boundary condition  ***
!!======================================================================
!!   nambfr        bottom friction
!!   nambbc        bottom temperature boundary condition               
!!   nambbl        bottom boundary layer scheme                         ("key_trabbl")
!!======================================================================
!
!-----------------------------------------------------------------------
&nambfr        !   bottom friction
!-----------------------------------------------------------------------
   nn_bfr      =    1      !  type of bottom friction :   = 0 : free slip,  = 1 : linear friction
                           !                              = 2 : nonlinear friction
   rn_bfri1    =    4.e-4  !  bottom drag coefficient (linear case)
   rn_bfri2    =    1.e-3  !  bottom drag coefficient (non linear case)
   rn_bfeb2    =    2.5e-3 !  bottom turbulent kinetic energy background  (m^2/s^2)
   ln_bfr2d    = .false.   !  horizontal variation of the bottom friction coef (read a 2D mask file )