# NHI configuration file
# Jarno Verkaik, Deltares

[DATA] # here all data used should be specified
   [[LOCAL]] # local data definition

        ####################################################################
        # MODFLOW (iMOD run-file)                                                          
        ####################################################################
        
        # general data path
        %moddata% =d:\NHI\LHM\3.1.x\DBASE

        # BND module: model boundaries
        %bnd% =  %(%moddata%)s\modflow\bnd\
        ib_l1 = %(%bnd%)s\ibound_l1.idf
        ib_l2 = %(%bnd%)s\ibound_l2.idf
        ib_l3 = %(%bnd%)s\ibound_l2.idf
        ib_l4 = %(%bnd%)s\ibound_l2.idf
        ib_l5 = %(%bnd%)s\ibound_l2.idf
        ib_l6 = %(%bnd%)s\ibound_l2.idf
        ib_l7 = %(%bnd%)s\ibound_l2.idf

        # SHD module: starting heads
        %shd% = e:\LHM\model_v3.1.x\runs\RWsOS_2016-2017\NHI320_RWSos_final3\modflow\results\head\
        shd_l1 = %(%shd%)s\head_20141231_l1.idf
        shd_l2 = %(%shd%)s\head_20141231_l2.idf
        shd_l3 = %(%shd%)s\head_20141231_l3.idf
        shd_l4 = %(%shd%)s\head_20141231_l4.idf
        shd_l5 = %(%shd%)s\head_20141231_l5.idf
        shd_l6 = %(%shd%)s\head_20141231_l6.idf
        shd_l7 = %(%shd%)s\head_20141231_l7.idf

        # KDW module: transmissitivities
        %kdw% = %(%moddata%)s\modflow\kd\
        kd_l1 = %(%kdw%)s\kd1.idf
        kd_l2 = %(%kdw%)s\kd2.idf
        kd_l3 = %(%kdw%)s\kd3.idf
        kd_l4 = %(%kdw%)s\kd4.idf
        kd_l5 = %(%kdw%)s\kd5.idf
        kd_l6 = %(%kdw%)s\kd6.idf
        kd_l7 = %(%kdw%)s\kd7.idf

        # VCW module: vertical resistances
        %vcw% = %(%moddata%)s\modflow\c\
        c_l1 =  %(%vcw%)s\c1.idf
        c_l2 =  %(%vcw%)s\c2.idf
        c_l3 =  %(%vcw%)s\c3.idf
        c_l4 =  %(%vcw%)s\c4.idf
        c_l5 =  %(%vcw%)s\c5.idf
        c_l6 =  %(%vcw%)s\c6.idf

        # ANI module: anisotrophy factors and angles
        %ani% = %(%moddata%)s\modflow\ani\ 
        fct_l2 = %(%ani%)s\fct_laag2.idf
        fct_l3 = %(%ani%)s\fct_laag3.idf
        fct_l4 = %(%ani%)s\fct_laag4.idf
        fct_l5 = %(%ani%)s\fct_laag5.idf
        ang_l2 = %(%ani%)s\hk_laag2.idf
        ang_l3 = %(%ani%)s\hk_laag3.idf
        ang_l4 = %(%ani%)s\hk_laag4.idf
        ang_l5 = %(%ani%)s\hk_laag5.idf

        # HFB module: fault barrier line segments
        %hfb% = %(%moddata%)s\modflow\hfb\
        bar_l2 = %(%hfb%)s\hfb_l4.gen
        bar_l3 = %(%hfb%)s\hfb_l5.gen
        bar_l4 = %(%hfb%)s\hfb_l4.gen
        bar_l5 = %(%hfb%)s\hfb_l5.gen
        bar_l6 = %(%hfb%)s\hfb_l6.gen
        bar_l7 = %(%hfb%)s\hfb_l7.gen

        # WEL package: extraction rates
        %wel% = %(%moddata%)s\modflow\wel\
        rate_nhi_l1  =         %(%wel%)s\wel_l01_nhi.ipf                            
        rate_nhi_l2  =         %(%wel%)s\wel_l02_nhi.ipf                             
        rate_nhi_l3  =         %(%wel%)s\wel_l03_nhi.ipf                             
        rate_nhi_l4  =         %(%wel%)s\wel_l04_nhi.ipf                             
        rate_nhi_l5  =         %(%wel%)s\wel_l05_nhi.ipf                             
        rate_nhi_l6  =         %(%wel%)s\wel_l06_nhi.ipf                             
        rate_nhi_l7  =         %(%wel%)s\wel_l07_nhi.ipf                             
        rate_bw_l2 =           %(%wel%)s\wel_bw_l2_cor.ipf          
        rate_bw_l3 =           %(%wel%)s\wel_bw_l3_cor.ipf          
        rate_bw_l4 =           %(%wel%)s\wel_bw_l4_cor.ipf          
        rate_bw_l5 =           %(%wel%)s\wel_bw_l5_cor.ipf          
        rate_bw_l6 =           %(%wel%)s\wel_bw_l6_cor.ipf          
        rate_bw_l7 =           %(%wel%)s\wel_bw_l7_cor.ipf          
        rate_evides_l2 =       %(%wel%)s\wel_evides_l2.ipf  
        rate_evides_l3 =       %(%wel%)s\wel_evides_l3.ipf
        rate_evides_l5 =       %(%wel%)s\wel_evides_l5.ipf
        rate_evides_l6 =       %(%wel%)s\wel_evides_l6.ipf
        rate_evides_l7 =       %(%wel%)s\wel_evides_l7.ipf           
        rate_pwn_l2 =          %(%wel%)s\wel_pwn_l2.ipf         
        rate_pwn_l3 =          %(%wel%)s\wel_pwn_l3.ipf         
        rate_vitens_azure_l1 = %(%wel%)s\wel_vitens_l1.ipf
        rate_vitens_azure_l2 = %(%wel%)s\wel_vitens_l2.ipf
        rate_vitens_azure_l3 = %(%wel%)s\wel_vitens_l3.ipf
        rate_vitens_azure_l4 = %(%wel%)s\wel_vitens_l4.ipf
        rate_vitens_azure_l5 = %(%wel%)s\wel_vitens_l5.ipf
        rate_vitens_azure_l6 = %(%wel%)s\wel_vitens_l6.ipf
        rate_vitens_azure_l7 = %(%wel%)s\wel_vitens_l7.ipf       
        rate_wbgr_l4 =         %(%wel%)s\wel_wbgr_l4.ipf        
        rate_wbgr_l5 =         %(%wel%)s\wel_wbgr_l5.ipf        
        rate_wbgr_l6 =         %(%wel%)s\wel_wbgr_l6.ipf 
        rate_wbgr_l7 =         %(%wel%)s\wel_wbgr_l7.ipf
        rate_wmd_l4 =          %(%wel%)s\wel_wmd_l4.ipf         
        rate_wmd_l5 =          %(%wel%)s\wel_wmd_l5.ipf         
        rate_wmd_l6 =          %(%wel%)s\wel_wmd_l6.ipf 
        rate_wmd_l7 =          %(%wel%)s\wel_wmd_l7.ipf
        rate_wml_l2 =          %(%wel%)s\wel_wml_l2_cor.ipf         
        rate_wml_l3 =          %(%wel%)s\wel_wml_l3_cor.ipf         
        rate_wml_l4 =          %(%wel%)s\wel_wml_l4_cor.ipf         
        rate_wml_l5 =          %(%wel%)s\wel_wml_l5_cor.ipf         
        rate_wml_l6 =          %(%wel%)s\wel_wml_l6_cor.ipf         
        rate_wml_l7 =          %(%wel%)s\wel_wml_l7_cor.ipf         
        rate_oasen_l2  =       %(%wel%)s\wel_oasen_l2.ipf
        rate_oasen_l3  =       %(%wel%)s\wel_oasen_l3.ipf
        rate_oasen_l4  =       %(%wel%)s\wel_oasen_l4.ipf
        rate_oasen_l5  =       %(%wel%)s\wel_oasen_l5.ipf
        rate_oasen_l6  =       %(%wel%)s\wel_oasen_l6.ipf
                
        # DRN package: drainage for "buis", surroundings and overland flow
        %drn% = %(%moddata%)s\modflow\drn\
        drn_cond_b    = d:\NHI\LHM\3.1.x\buisdrainage\COND_B_250.IDF
        drn_cond_sur  = %(%drn%)s\nl_drnc_clip.idf
        drn_cond_olf  = %(%drn%)s\COND_SOF_250.IDF
        drn_cond_mvg  = d:\NHI\LHM\3.1.x\maaiveldgreppels\COND_BRP2012_MVGREP_250M.IDF 
        drn_stage_b   = d:\NHI\LHM\3.1.x\buisdrainage\BODH_B_250.IDF
        drn_stage_sur = %(%drn%)s\nl_drnh_clip.idf
        drn_stage_olf = %(%drn%)s\BODH_SOF_250.IDF
        drn_stage_mvg = d:\NHI\LHM\3.1.x\maaiveldgreppels\DIEPTEtovMV_BRP2012_MVGREP_250M.IDF

        # GHB package: general head boundary for North sea and abroad
        %ghb% = %(%moddata%)s\modflow\ghb\
        ghb_cond_s1l2  = %(%ghb%)s\ghb_cond_l02_s01.idf
        ghb_cond_s1l3  = %(%ghb%)s\ghb_cond_l03_s01.idf
        ghb_cond_s1l4  = %(%ghb%)s\ghb_cond_l04_s01.idf
        ghb_cond_s2l2  = %(%ghb%)s\ghb_cond_l02_s02.idf
        ghb_stage_s1l2 = d:\NHI\LHM\3.1.x\GHB\ghb_stage_l02_s01_v2.IDF
        ghb_stage_s1l3 = %(%ghb%)s\ghb_stage_l03_s01.idf
        ghb_stage_s1l4 = %(%ghb%)s\ghb_stage_l04_s01.idf
        ghb_stage_s2l2 = %(%ghb%)s\ghb_stage_l02_s02.idf

        # RIV package: conductances for p, s, t, h (layer 1 and 2), and w ("wellen")
        %riv_hws% = %(%moddata%)s\modflow\riv\hoofdwater
        #%riv_hws% = d:\NHI\Activiteiten\2017\SBIR\input\modflow\riv\hoofdwater

        %riv_reg% = %(%moddata%)s\modflow\riv\regionaal
        %riv_wel% = %(%moddata%)s\modflow\riv\wellen
        
        riv_cond_p1 = %(%riv_reg%)s\COND_P_L0.IDF
        riv_cond_s1 = %(%riv_reg%)s\COND_S_L0.IDF
        riv_cond_t1 = %(%riv_reg%)s\COND_T_L0.IDF
        riv_cond_h1 = %(%riv_hws%)s\COND_HL1_250.IDF
        riv_cond_h2 = %(%riv_hws%)s\COND_HL2_250.IDF
        riv_cond_w  = %(%riv_wel%)s\cond_wel.idf

        # RIV package: directories with dynamic stages for h
        riv_stage_h1 = %(%riv_hws%)s
        riv_stage_h2 = %(%riv_hws%)s
        # RIV package: winter stages for p, s, t, and w
        riv_stage_p1w = %(%riv_reg%)s\PEIL_P1W_250.IDF
        riv_stage_s1w = %(%riv_reg%)s\PEIL_S1W_250.IDF
        riv_stage_t1w = %(%riv_reg%)s\PEIL_T1W_250.IDF
        riv_stage_ww  = %(%riv_wel%)s\peilw_wel.idf
        # RIV package: summer stages for p, s, t, and w
        riv_stage_p1z = %(%riv_reg%)s\PEIL_P1Z_250.IDF 
        riv_stage_s1z = %(%riv_reg%)s\PEIL_S1Z_250.IDF 
        riv_stage_t1z = %(%riv_reg%)s\PEIL_T1Z_250.IDF 
        riv_stage_wz  = %(%riv_wel%)s\peilz_wel.idf

        # RIV package: winter bottoms for p, s, t, h, and w
        riv_rbot_p1w = %(%riv_reg%)s\BODH_P1W_250.IDF
        riv_rbot_s1w = %(%riv_reg%)s\BODH_S1W_250.IDF
        riv_rbot_t1w = %(%riv_reg%)s\PEIL_T1W_250.IDF
        riv_rbot_h1w = %(%riv_hws%)s\both_w_l1.idf
        riv_rbot_h2w = %(%riv_hws%)s\both_w_l2.idf
        riv_rbot_ww  = %(%riv_wel%)s\bodh_wel.idf
        # RIV package: winter bottoms for p, s, t, h, and w
        riv_rbot_p1z = %(%riv_reg%)s\BODH_P1Z_250.IDF                    
        riv_rbot_s1z = %(%riv_reg%)s\BODH_S1Z_250.IDF                    
        riv_rbot_t1z = %(%riv_reg%)s\PEIL_T1Z_250.IDF                    
        riv_rbot_h1z = %(%riv_hws%)s\both_z_l1.idf
        riv_rbot_h2z = %(%riv_hws%)s\both_z_l2.idf
        riv_rbot_wz  = %(%riv_wel%)s\bodh_wel.idf                    
       
        # RIV package: infiltration factors for p, s, t, h, and w
        riv_inf_p1 = %(%riv_reg%)s\INFMZ_P1_250.IDF
        riv_inf_s1 = %(%riv_reg%)s\INFMZ_S1_250.IDF
        riv_inf_t1 = %(%riv_reg%)s\INFMZ_T1_250.IDF
        riv_inf_h1 = %(%riv_hws%)s\infmz_h_250_l1.idf
        riv_inf_h2 = %(%riv_hws%)s\infmz_h_250_l2.idf
        riv_inf_w  = %(%riv_wel%)s\inff_wel.idf

        # RIV package: conductance for "wellen"
        riv_conc_w = %(%riv_wel%)s\CWELLEN_15M.IDF

        ####################################################################
        # MetaSWAP                                                          
        ####################################################################

        # unsa path for para_sim.inp
        unsa_svat_path = d:\NHI\LHM\3.1.x\update_database\PreMetaSWAP_V7_3_13_SCR654_Fits2_a\out\LHM2016_v02\
        
        # files that are copied directly to the run directory
        %ms% = %(%moddata%)s\metaswap
        comp_post           = %(%ms%)s\inp\comp_post.csv
        fact_svat           = %(%ms%)s\inp\fact_svat.inp
        idf_svat            = %(%ms%)s\inp\idf_svat.inp
        init_svat           = d:\NHI\Activiteiten\2017\SBIR\input\metaswap\init_2015\init_svat.inp
        luse_svat           = d:\NHI\LHM\3.1.x\update_database\luse_svat.inp
        sel_svat            = %(%ms%)s\inp\sel_svat.inp              
        sel_svat_csv        = %(%ms%)s\inp\sel_svat_csv.inp          
        sel_svat_bda        = %(%ms%)s\inp\sel_svat_bda.inp          
        solute_bnd          = %(%ms%)s\inp\solute_bnd.csv.inp        
        solute_coliii       = %(%ms%)s\inp\solute_coliii.csv.inp     
        solute_param_ranges = %(%ms%)s\inp\solute_param_ranges.inp
        solute_params       = %(%ms%)s\inp\solute_params.inp
        svat2swnr_roff      = d:\NHI\LHM\3.1.x\Landgebruik_verhard\svat2swnr_roff.inp
        tiop_sim            = d:\NHI\Activiteiten\2017\SBIR\input\metaswap\init_2015\tiop_sim.inp
        writecontrol        = %(%ms%)s\inp\writecontrol.inp       
        svat2etrefgrid      = %(%ms%)s\inp\svat2etrefgrid.inp
        svat2precgrid       = %(%ms%)s\inp\svat2precgrid.inp
        uscl_svat           = %(%ms%)s\inp\uscl_svat.inp
        sol1                = %(%ms%)s\inp\solute_balance_output_off.inp
        sol2                = %(%ms%)s\inp\solute_rootz_output_off.inp  
        dldra_svat          = %(%ms%)s\inp\dldra_svat.inp
        dqsat_svat          = %(%ms%)s\inp\dqsat_svat.inp
        
        prec_meteop         = %(%ms%)s\init_percolation\VALUE08.ASC 
        evap_meteop         = %(%ms%)s\init_percolation\VALUE0.ASC 

        # grid2metaswap files
        %g2m% = %(%moddata%)s\metaswap\grid
        ibound_asc       = %(%g2m%)s\ibound.asc
        deel_asc         = %(%g2m%)s\deelgebied.asc
        uopp_asc         = d:\NHI\LHM\3.1.x\Landgebruik_verhard\UOPP.ASC
        maaiveld_asc     = %(%g2m%)s\AHN_F250_CM.ASC
        lgn_asc          = d:\NHI\LHM\3.1.x\Landgebruik_verhard\lgn250.asc
        bodem_asc        = d:\NHI\LHM\3.1.x\update_database\bodemSCR654.asc
        rootzone_asc     = d:\NHI\LHM\3.1.x\wortelzonedikte\rootzone_09112016.asc
        metestat_asc     = %(%g2m%)s\metestat.asc
        beregen_asc      = d:\NHI\LHM\3.1.x\Landgebruik_verhard\beregen.asc
        beregen_laag_asc = %(%g2m%)s\beregen_laag.asc
        thiessen_asc     = %(%g2m%)s\thiessen.asc
        modnum_asc       = %(%g2m%)s\modnum.asc
        # dummies
        nopp_asc         = %(%g2m%)s\nopp.asc
        gopp_asc         = %(%g2m%)s\gopp.asc
        sopp_asc         = %(%g2m%)s\sopp_rdg.asc
        soppsw_asc       = %(%g2m%)s\sopp_sw.asc
        soppgw_asc       = %(%g2m%)s\sopp_gw.asc
        neercorr_asc     = %(%g2m%)s\geenneercorr.asc
        verdcorr_asc     = %(%g2m%)s\geenverdcorr.asc
        vxmu_asc         = %(%g2m%)s\vxmu.asc
        qinf_asc         = %(%g2m%)s\vxmu.asc
        qinfub_asc       = %(%g2m%)s\qinfub.asc
        bassin_asc       = d:\NHI\LHM\3.1.x\Landgebruik_verhard\bassinx.asc
        afwatering_asc   = %(%g2m%)s\afwatering.asc
              

        ####################################################################
        # MOZART                                                          
        ####################################################################

        # files for PRM-file
        %moztot% = %(%moddata%)s\mozart\tot
        control        = %(%moztot%)s\control.rout
        crackdepth     = %(%moztot%)s\crckdpth.ggs
        crop           = %(%moztot%)s\crop.zvk
        croppattern    = %(%moztot%)s\croppatt.zvk
        cultivation    = %(%moztot%)s\cultivat.zvk
        drain          = %(%moztot%)s\drain.ggs
        drpl           = %(%moztot%)s\drpl.dik
        drplvalue_in   = %(%moztot%)s\drplval.dik
        moz_dwkeys     = %(%moztot%)s\dwkeys.txt
        dwlswex_in     = %(%moztot%)s\dwlswex.dum
        edf            = %(%moztot%)s\edf.ggs
        flush          = %(%moztot%)s\flushing.ggs
        ftfmd          = %(%moztot%)s\ftfmd.fa4
        ftgwlph        = %(%moztot%)s\ftgwlph.fa4
        ftrzmd         = %(%moztot%)s\ftrzmd.drs
        genuchtpar     = %(%moztot%)s\genucht.2001
        growingstage   = %(%moztot%)s\growstag.c12
        infiltration   = %(%moztot%)s\infiltr.zvk
        khvalue        = %(%moztot%)s\khvalue.drs
        layer          = %(%moztot%)s\layer.ggs
        lswlswex_in    = %(%moztot%)s\lswlswex.dum
        lswplex_in     = %(%moztot%)s\lswplex.dum
        lswusex_in     = %(%moztot%)s\lswusex.dum
        msg            = %(%moztot%)s\msg.ggs
        nw             = %(%moztot%)s\nw.ggs
        nwdwex_in      = %(%moztot%)s\nwdwex.dum
        pfvalue        = %(%moztot%)s\pfvalue.drs
        plboundary     = %(%moztot%)s\plbound.dik
        plot_in        = %(%moztot%)s\plot.dik
        plsegvalue_in  = %(%moztot%)s\plsgval.dik
        plvalue_in     = %(%moztot%)s\plvalue.dik
        prefflowvalue  = %(%moztot%)s\prfflwvl.ggs
        rootdepth      = %(%moztot%)s\rootdpth.w6
        soiltype       = %(%moztot%)s\soiltype.ggs
        user           = %(%moztot%)s\user.ggs
        vertprofile    = %(%moztot%)s\vertprof.ggs

        # files for MozartIn  
        %mozdik% = %(%moddata%)s\mozart\mozartin
        dw         = %(%mozdik%)s\dw.dik
        dwvalue    = %(%mozdik%)s\dwvalue.dik
        lsw        = %(%mozdik%)s\lsw.dik
        lswvalue   = %(%mozdik%)s\lswvalue.dik
        ladvalue   = %(%mozdik%)s\ladvalue.dik
        lswrouting = %(%mozdik%)s\lswrouting.dik
        uslsw      = %(%mozdik%)s\uslsw.dik
        uslswdem   = %(%mozdik%)s\uslswdem.dik
        weirarea   = %(%mozdik%)s\weirarea.dik
        vadvalue   = %(%mozdik%)s\vadvalue.dik
        vlvalue    = %(%mozdik%)s\vlvalue.dik
        lswattr    = d:\NHI\LHM\3.1.x\Landgebruik_verhard\lswattr.csv
        waattr     = d:\NHI\LHM\3.1.x\Landgebruik_verhard\waattr.csv
        lswrouting_dbc = %(%mozdik%)s\LswRouting_dbc.dik

        ####################################################################
        # DM                                                          
        ####################################################################
        # files for the PRM-file (and writing DM_Sobek.txt with reference to HIS-file)   
        %dm% = %(%moddata%)s\dm
        dm_DwKeys = d:\NHI\LHM\3.1.x\DWkeys\DwKeys.txt  
        Nds       = %(%dm%)s\nds.txt                                             
        Lnks      = %(%dm%)s\lnks.txt                                           
        Rivers    = d:\NHI\LHM\3.1.x\Dmdag-decadeafvoeren\DMdecadeafvoeren.txt                  
        Uex_in    = %(%dm%)s\fixed.txt
        DM_Sobek  = %(%dm%)s\Dm_Sobek.txt
        His       = %(%dm%)s\huidig20002019.his

        ####################################################################
        # Meteo                                                          
        ####################################################################
        # precipitation and evaporation files (now only 2002/2003; add more for other simulation periods)
        # NOTES: 1. meteo is always specified per year
        #        2. the names should be consistent with the [METEO] section, containing year yyyy:
        #               <prec_pre>yyyy<prec_post> for precipitation
        #               <evap_pre>yyyy<evap_post> for evaporation 
        %prec% = d:\NHI\LHM\3.1.0\DBASE\meteo\KNMI\RD1_nrt\Release_5
        %evap% = d:\NHI\LHM\3.1.0\DBASE\meteo\KNMI\EV24\Release_2
        prec_1961 = %(%prec%)s\precipitation_1961*.asc
        prec_1962 = %(%prec%)s\precipitation_1962*.asc
        prec_1963 = %(%prec%)s\precipitation_1963*.asc
        prec_1964 = %(%prec%)s\precipitation_1964*.asc
        prec_1965 = %(%prec%)s\precipitation_1965*.asc
        prec_1966 = %(%prec%)s\precipitation_1966*.asc
        prec_1967 = %(%prec%)s\precipitation_1967*.asc        
        prec_1968 = %(%prec%)s\precipitation_1968*.asc
        prec_1969 = %(%prec%)s\precipitation_1969*.asc
        prec_1970 = %(%prec%)s\precipitation_1970*.asc        
        prec_1971 = %(%prec%)s\precipitation_1971*.asc
        prec_1972 = %(%prec%)s\precipitation_1972*.asc
        prec_1973 = %(%prec%)s\precipitation_1973*.asc
        prec_1974 = %(%prec%)s\precipitation_1974*.asc
        prec_1975 = %(%prec%)s\precipitation_1975*.asc
        prec_1976 = %(%prec%)s\precipitation_1976*.asc
        prec_1977 = %(%prec%)s\precipitation_1977*.asc
        prec_1978 = %(%prec%)s\precipitation_1978*.asc
        prec_1979 = %(%prec%)s\precipitation_1979*.asc
        prec_1980 = %(%prec%)s\precipitation_1980*.asc
        prec_1981 = %(%prec%)s\precipitation_1981*.asc
        prec_1982 = %(%prec%)s\precipitation_1982*.asc        
        prec_1983 = %(%prec%)s\precipitation_1983*.asc
        prec_1984 = %(%prec%)s\precipitation_1984*.asc
        prec_1985 = %(%prec%)s\precipitation_1985*.asc
        prec_1986 = %(%prec%)s\precipitation_1986*.asc
        prec_1987 = %(%prec%)s\precipitation_1987*.asc
        prec_1988 = %(%prec%)s\precipitation_1988*.asc
        prec_1989 = %(%prec%)s\precipitation_1989*.asc        
        prec_1990 = %(%prec%)s\precipitation_1990*.asc
        prec_1991 = %(%prec%)s\precipitation_1991*.asc
        prec_1992 = %(%prec%)s\precipitation_1992*.asc        
        prec_1993 = %(%prec%)s\precipitation_1993*.asc
        prec_1994 = %(%prec%)s\precipitation_1994*.asc
        prec_1995 = %(%prec%)s\precipitation_1995*.asc
        prec_1996 = %(%prec%)s\precipitation_1996*.asc
        prec_1997 = %(%prec%)s\precipitation_1997*.asc
        prec_1998 = %(%prec%)s\precipitation_1998*.asc
        prec_1999 = %(%prec%)s\precipitation_1999*.asc
        prec_2000 = %(%prec%)s\precipitation_2000*.asc
        prec_2001 = %(%prec%)s\precipitation_2001*.asc
        prec_2002 = %(%prec%)s\precipitation_2002*.asc
        prec_2003 = %(%prec%)s\precipitation_2003*.asc
        prec_2004 = %(%prec%)s\precipitation_2004*.asc
        prec_2005 = %(%prec%)s\precipitation_2005*.asc
        prec_2006 = %(%prec%)s\precipitation_2006*.asc
        prec_2007 = %(%prec%)s\precipitation_2007*.asc
        prec_2008 = %(%prec%)s\precipitation_2008*.asc
        prec_2009 = %(%prec%)s\precipitation_2009*.asc
        prec_2010 = %(%prec%)s\precipitation_2010*.asc                                
        prec_2011 = %(%prec%)s\precipitation_2011*.asc 
        prec_2012 = %(%prec%)s\precipitation_2012*.asc
        prec_2013 = %(%prec%)s\precipitation_2013*.asc
        prec_2014 = %(%prec%)s\precipitation_2014*.asc
        prec_2015 = %(%prec%)s\precipitation_2015*.asc
        prec_2016 = %(%prec%)s\precipitation_2016*.asc
        prec_2017 = %(%prec%)s\precipitation_2017*.asc
        evap_1961 = %(%evap%)s\evaporation_1961*.asc
        evap_1962 = %(%evap%)s\evaporation_1962*.asc
        evap_1963 = %(%evap%)s\evaporation_1963*.asc
        evap_1964 = %(%evap%)s\evaporation_1964*.asc 
        evap_1965 = %(%evap%)s\evaporation_1965*.asc
        evap_1966 = %(%evap%)s\evaporation_1966*.asc
        evap_1967 = %(%evap%)s\evaporation_1967*.asc
        evap_1968 = %(%evap%)s\evaporation_1968*.asc
        evap_1969 = %(%evap%)s\evaporation_1969*.asc
        evap_1970 = %(%evap%)s\evaporation_1970*.asc
        evap_1971 = %(%evap%)s\evaporation_1971*.asc
        evap_1972 = %(%evap%)s\evaporation_1972*.asc
        evap_1973 = %(%evap%)s\evaporation_1973*.asc
        evap_1974 = %(%evap%)s\evaporation_1974*.asc
        evap_1975 = %(%evap%)s\evaporation_1975*.asc
        evap_1976 = %(%evap%)s\evaporation_1976*.asc 
        evap_1977 = %(%evap%)s\evaporation_1977*.asc
        evap_1978 = %(%evap%)s\evaporation_1978*.asc
        evap_1979 = %(%evap%)s\evaporation_1979*.asc
        evap_1980 = %(%evap%)s\evaporation_1980*.asc 
        evap_1981 = %(%evap%)s\evaporation_1981*.asc
        evap_1982 = %(%evap%)s\evaporation_1982*.asc
        evap_1983 = %(%evap%)s\evaporation_1983*.asc
        evap_1984 = %(%evap%)s\evaporation_1984*.asc 
        evap_1985 = %(%evap%)s\evaporation_1985*.asc
        evap_1986 = %(%evap%)s\evaporation_1986*.asc
        evap_1987 = %(%evap%)s\evaporation_1987*.asc 
        evap_1988 = %(%evap%)s\evaporation_1988*.asc
        evap_1989 = %(%evap%)s\evaporation_1989*.asc
        evap_1990 = %(%evap%)s\evaporation_1990*.asc 
        evap_1991 = %(%evap%)s\evaporation_1991*.asc
        evap_1992 = %(%evap%)s\evaporation_1992*.asc
        evap_1993 = %(%evap%)s\evaporation_1993*.asc 
        evap_1994 = %(%evap%)s\evaporation_1994*.asc
        evap_1995 = %(%evap%)s\evaporation_1995*.asc
        evap_1996 = %(%evap%)s\evaporation_1996*.asc 
        evap_1997 = %(%evap%)s\evaporation_1997*.asc
        evap_1998 = %(%evap%)s\evaporation_1998*.asc
        evap_1999 = %(%evap%)s\evaporation_1999*.asc 
        evap_2000 = %(%evap%)s\evaporation_2000*.asc
        evap_2001 = %(%evap%)s\evaporation_2001*.asc
        evap_2002 = %(%evap%)s\evaporation_2002*.asc 
        evap_2003 = %(%evap%)s\evaporation_2003*.asc
        evap_2004 = %(%evap%)s\evaporation_2004*.asc
        evap_2005 = %(%evap%)s\evaporation_2005*.asc 
        evap_2006 = %(%evap%)s\evaporation_2006*.asc
        evap_2007 = %(%evap%)s\evaporation_2007*.asc
        evap_2008 = %(%evap%)s\evaporation_2008*.asc 
        evap_2009 = %(%evap%)s\evaporation_2009*.asc
        evap_2010 = %(%evap%)s\evaporation_2010*.asc
        evap_2011 = %(%evap%)s\evaporation_2011*.asc
        evap_2012 = %(%evap%)s\evaporation_2012*.asc
        evap_2013 = %(%evap%)s\evaporation_2013*.asc
        evap_2014 = %(%evap%)s\evaporation_2014*.asc
        evap_2015 = %(%evap%)s\evaporation_2015*.asc
        evap_2016 = %(%evap%)s\evaporation_2016*.asc
        evap_2017 = %(%evap%)s\evaporation_2017*.asc
   
        # files required for the meteo tool 
        %coupling% = %(%moddata%)s\coupling\
        mozart_shp = d:\NHI\LHM\3.1.x\LSW\nhi_320_lsw_SP.shp
        mozart_dbf = d:\NHI\LHM\3.1.x\LSW\nhi_320_lsw_SP.dbf
        dm_shp     = d:\NHI\LHM\3.1.x\LSW\DMnetwerk_V8_201602.shp
        dm_dbf     = d:\NHI\LHM\3.1.x\LSW\DMnetwerk_V8_201602.dbf
        dm_area    = %(%coupling%)s\dm_area_sp.txt

        ####################################################################
        # Coupling                                                          
        ####################################################################
        mf2lsw      = %(%coupling%)s\MFtoLSW.csv
        plot2lsw    = %(%coupling%)s\PlottoLSW.csv

        ####################################################################
        # Executables                                                          
        ####################################################################
        %exe% = %(%moddata%)s\_exe\
        g2m_exe           = d:\NHI\LHM\3.1.x\exe\grid2metaswap_nhi.exe
        mozartInExe       = %(%exe%)s\MozartIn_rev704.exe
        meteo_exe         = d:\NHI\LHM\3.1.x\DBASE\_exe\meteo_rel_svn922_ifort12.exe       
        signal_exe        = %(%exe%)s\signalhandling.exe
        modsimtranmoz_exe = d:\NHI\LHM\3.1.x\update_database\Driver.exe
        mozart_exe        = %(%exe%)s\Mozart_rev763.exe	
        dm_exe            = %(%exe%)s\NwSim.exe

#   [[1]] # in this section one should specify the version controlled data
#        model_name       = nhi
#        meta_data_repos  = https://svn-nhi-data.deltares.nl/repos/nhi-data/
#        meta_data_user   = 
#        client_host      = ftp-nhi-data.deltares.nl
#        client_user      = 
#        param_name       = ''''''
#        param_name_meteo = '''
#                              '''

[RESTART]
     [[MODFLOW]]
         [[[1]]]
             %mp%   = modflow\results\head\head_
             source = %(%mp%)s????????_l1.idf, %(%mp%)s????????_l2.idf, %(%mp%)s????????_l3.idf, %(%mp%)s????????_l4.idf, %(%mp%)s????????_l5.idf, %(%mp%)s????????_l6.idf, %(%mp%)s????????_l7.idf
             target = shd_l1, shd_l2, shd_l3, shd_l4, shd_l5, shd_l6, shd_l7
     [[METASWAP]]
         [[[1]]]
             source = metaswap\init_svat.out
             target = init_svat
             rename = init_svat.inp
         [[[2]]]
             source = metaswap\solute_coliii.csv.out
             target = solute_coliii
             rename = solute_coliii.csv.inp
     [[MOZART]]
         [[[1]]]
             source = mozart\dwvalue.out, mozart\lswvalue.out, mozart\wavalue.out
             target = dwvalue, lswvalue, wavalue
             rename = dwvalue.dik, lswvalue.dik, wavalue.dik
             time   = t, t, t
     [[DM]]
         [[[1]]]
             source = dm\output\restartoutput.txt
             target = RestartInput


[EXE] # specify the executables: components, mozart and dm
    modsimtranmozexe = modsimtranmoz_exe
    mozartexe        = mozart_exe
    dmexe            = dm_exe

[MODFLOW]
    [[SETTINGS]] # general settings
        outputfolder = ..\results\
        nlay         = 7
        xmin         = 0
        ymin         = 300000
        xmax         = 300000
        ymax         = 625000
        buffer       = 0.
        bndfile      = ib_l1
        csize        = 250
        isave        = 1
        [[[ISAVE 1]]]
            isave = -1
            tsd   = 1
            ted   = 31

    [[BND]]
        ibound 1 = 1,0,ib_l1
        ibound 2 = 1,0,ib_l2
        ibound 3 = 1,0,ib_l3
        ibound 4 = 1,0,ib_l4
        ibound 5 = 1,0,ib_l5
        ibound 6 = 1,0,ib_l6
        ibound 7 = 1,0,ib_l7

    [[SHD]]
        ilsave = 1, 2, 3, 4, 5, 6, 7
        shead 1 = 1,0,shd_l1
        shead 2 = 1,0,shd_l2
        shead 3 = 1,0,shd_l3
        shead 4 = 1,0,shd_l4
        shead 5 = 1,0,shd_l5
        shead 6 = 1,0,shd_l6
        shead 7 = 1,0,shd_l7

    [[KDW]]
        kd 1 = 1,0,kd_l1
        kd 2 = 1,0,kd_l2
        kd 3 = 1,0,kd_l3
        kd 4 = 1,0,kd_l4
        kd 5 = 1,0,kd_l5
        kd 6 = 1,0,kd_l6
        kd 7 = 1,0,kd_l7

    [[VCW]]
        c1 = 1,0,c_l1
        c2 = 1,0,c_l2
        c3 = 1,0,c_l3
        c4 = 1,0,c_l4
        c5 = 1,0,c_l5
        c6 = 1,0,c_l6

    [[STO]]
        storage 1 = 1,0,0.2
        storage 2 = 1,0,0.001
        storage 3 = 1,0,0.001
        storage 4 = 1,0,0.001
        storage 5 = 1,0,0.001
        storage 6 = 1,0,0.001
        storage 7 = 1,0,0.001

    [[TOP]] # Tops should be explicitly specified in MODFLOW-2005; use dummy values
        top 1 = 1,0,0
        top 2 = 1,0,0
        top 3 = 1,0,0
        top 4 = 1,0,0
        top 5 = 1,0,0
        top 6 = 1,0,0
        top 7 = 1,0,0

    [[BOT]] # Tops should be explicitly specified in MODFLOW-2005; use dummy values
        bot 1 = 1,0,0
        bot 2 = 1,0,0
        bot 3 = 1,0,0
        bot 4 = 1,0,0
        bot 5 = 1,0,0
        bot 6 = 1,0,0
        bot 7 = 1,0,0

    [[ANI]]
        factor 1 = 1,0,1.0
        factor 2 = 1,0,fct_l2
        factor 3 = 1,0,fct_l3
        factor 4 = 1,0,fct_l4
        factor 5 = 1,0,fct_l5
        factor 6 = 1,0,1.0
        factor 7 = 1,0,1.0
        angle 1 = 1,0,0.0
        angle 2 = 1,0,ang_l2
        angle 3 = 1,0,ang_l3
        angle 4 = 1,0,ang_l4
        angle 5 = 1,0,ang_l5
        angle 6 = 1,0,0.0
        angle 7 = 1,0,0.0

    [[HFB]]